.\" /usr/lib/roff/troff_ps/specials.r 7/7/94
.\" Default special character definitions for PostScript troff.
.\" Uses Symbol font as \fS, Dingbat font as \f(DB.
.\"
.lf S Symbol.fwt
.dc em \XD0
.dc hy -
.dc bu \XB7
.dc sq []
.dc ru _
.dc 14 1/4
.dc 12 1/2
.dc 34 3/4
.dc fi \XAE
.dc fl \XAF
.dc ff ff
.dc Fi f\XAE
.dc Fl f\XAF
.dc de \XCA
.dc dg \XB2
.dc fm \XA9
.dc ct \XA2
.dc rg \fS\XD2\fP
.dc co \fS\XD3\fP
.dc tm \fS\XD4\fP
.dc pl \fS+\fP
.dc mi \fS-\fP
.dc eq \fS=\fP
.dc ** \fS*\fP
.dc sc \XA7
.dc aa \XC2
.dc ga \XC1
.dc ul _
.dc sl \XA4
.dc *a \fS\X61\fP
.dc *b \fS\X62\fP
.dc *g \fS\X67\fP
.dc *d \fS\X64\fP
.dc *e \fS\X65\fP
.dc *z \fS\X7A\fP
.dc *y \fS\X68\fP
.dc *h \fS\X71\fP
.dc *i \fS\X69\fP
.dc *k \fS\X6B\fP
.dc *l \fS\X6C\fP
.dc *m \fS\X6D\fP
.dc *n \fS\X6E\fP
.dc *c \fS\X78\fP
.dc *o \fS\X6F\fP
.dc *p \fS\X70\fP
.dc *r \fS\X72\fP
.dc *s \fS\X73\fP
.dc ts \fS\X56\fP
.dc *t \fS\X74\fP
.dc *u \fS\X75\fP
.dc *f \fS\X66\fP
.dc *x \fS\X63\fP
.dc *q \fS\X79\fP
.dc *w \fS\X77\fP
.dc *A \fS\X41\fP
.dc *B \fS\X42\fP
.dc *G \fS\X47\fP
.dc *D \fS\X44\fP
.dc *E \fS\X45\fP
.dc *Z \fS\X5A\fP
.dc *Y \fS\X48\fP
.dc *H \fS\X51\fP
.dc *I \fS\X49\fP
.dc *K \fS\X4B\fP
.dc *L \fS\X4C\fP
.dc *M \fS\X4D\fP
.dc *N \fS\X4E\fP
.dc *C \fS\X58\fP
.dc *O \fS\X4F\fP
.dc *P \fS\X50\fP
.dc *R \fS\X52\fP
.dc *S \fS\X53\fP
.dc *T \fS\X54\fP
.dc *U \fS\X55\fP
.dc *F \fS\X46\fP
.dc *X \fS\X43\fP
.dc *Q \fS\X59\fP
.dc *W \fS\X57\fP
.dc sr \fS\XD6\fP
.dc rn \fS\X60\fP
.dc >= \fS\XB3\fP
.dc <= \fS\XA3\fP
.dc == \fS\XBA\fP
.dc ~= \fS\XBB\fP
.dc ap ~
.dc != \fS\XB9\fP
.dc -> \fS\XAE\fP
.dc <- \fS\XAC\fP
.dc ua \fS\XAD\fP
.dc da \fS\XAF\fP
.dc mu \fS\XB4\fP
.dc di \fS\XA4\fP
.dc +- \fS\XB1\fP
.dc cu \fS\XC8\fP
.dc ca \fS\XC7\fP
.dc sb \fS\XCC\fP
.dc sp \fS\XC9\fP
.dc ib \fS\XCD\fP
.dc ip \fS\XCA\fP
.dc in \fS\XA5\fP
.dc pd \fS\XB6\fP
.dc gr \fS\XD1\fP
.dc no \fS\XD8\fP
.dc is \fS\XF2\fP
.dc pt \fS\XB5\fP
.dc es \fS\XC6\fP
.dc mo \fS\XCE\fP
.dc br \fS\XBD\fP
.dc dd \XB3
.dc rh \f(DB\X2B\fP
.dc lh <-
.dc or |
.dc ci O
.dc lt \fS\XE6\fP
.dc lb \fS\XE8\fP
.dc rt \fS\XF6\fP
.dc rb \fS\XF8\fP
.dc lk \fS\XED\fP
.dc rk \fS\XFD\fP
.dc bv \fS\XBD\fP
.dc lf \fS\XEB\fP
.dc rf \fS\XFB\fP
.dc lc \fS\XE9\fP
.dc rc \fS\XF9\fP
.\"
.\" The following implements the ISO Latin 1 table.  Each special character
.\" is named after its value in ISO Latin 1, in hexadecimal.  The character
.\" mappings use the character set employed by many commercial PostScript
.\" font manufacturers.  For a description of the ISO Latin 1 character set,
.\" use the command "man" to read the entry "Latin 1" from the on-line Lexicon.
.\" Note that characters that are not represented in the commercial font's
.\" character set (or could not be assembled from it) are mapped to a space
.\" character (0x20).
.dc A0 \X20
.dc A1 \\XA1
.dc A2 \\XA2
.dc A3 \\XA3
.dc A4 \\XA8
.dc A5 \\XA5
.dc A6 \X20
.dc A7 \\XA7
.dc A8 \\XC8
.dc A9 \\(co
.dc AA \\XE3
.dc AB \\XAB
.dc AC \\XB1
.dc AD \X20
.dc AE \\(rg
.dc AF \\XC5
.dc B0 \\XCA
.dc B1 \\(+-
.dc B2 \X20
.dc B3 \X20
.dc B4 \X20
.dc B5 \\(*m
.dc B6 \\XB6
.dc B7 \X20
.dc B8 \\XCB
.dc B9 \X20
.dc BA \\XEB
.dc BB \\XBB
.dc BC \X20
.dc BD \X20 
.dc BE \X20
.dc BF \\XBF
.dc C0 \X20
.dc C1 \X20
.dc C2 \X20
.dc C3 \X20
.dc C4 \X20
.dc C5 \X20
.dc C6 \\XE1
.dc C7 \\o'C\\XCB'
.dc C8 \X20
.dc C9 \X20
.dc CA \X20
.dc CB \X20
.dc CC \X20
.dc CD \X20
.dc CE \X20
.dc CF \X20
.dc D0 \X20
.dc D1 \X20
.dc D2 \X20
.dc D3 \X20
.dc D4 \X20
.dc D5 \X20
.dc D6 \X20
.dc D7 \X20
.dc D8 \\XE9
.dc D9 \X20
.dc DA \X20
.dc DB \X20
.dc DC \X20
.dc DD \X20
.dc DE \X20
.dc DF \\XFB
.dc E0 \\o'a\\XC1'
.dc E1 \\o'a\\XC2'
.dc E2 \\o'a\\XC3'
.dc E3 \\o'a\\XC4'
.dc E4 \\o'a\\XC8'
.dc E5 \\o'a\\XCA'
.dc E6 \\XF1
.dc E7 \\o'c\\XCB'
.dc E8 \\o'e\\XC1'
.dc E9 \\o'e\\XC2'
.dc EA \\o'e\\XC3'
.dc EB \\o'e\\XC8'
.dc EC \\o'i\\XC1'
.dc ED \\o'i\\XC2'
.dc EE \\o'i\\XC3'
.dc EF \\o'i\\XC8'
.dc F0 \X20
.dc F1 \\o'n\\XC4'
.dc F2 \\o'o\\XC1'
.dc F3 \\o'o\\XC2'
.dc F4 \\o'o\\XC3'
.dc F5 \\o'o\\XC4'
.dc F6 \\o'o\\XC8'
.dc F7 \X20
.dc F8 \\XF9
.dc F9 \\o'u\\XC1'
.dc FA \\o'u\\XC2'
.dc FB \\o'u\\XC3'
.dc FC \\o'u\\XC8'
.dc FD \\o'y\\XC2'
.dc FE \X20
.dc FF \\o'y\\XC8'
.\"
.\" end of /usr/lib/roff/troff_ps/specials.r
