head     1.3;
branch   ;
access   ;
symbols  ;
locks    bin:1.3; strict;
comment  @# @;


1.3
date     93.03.24.09.13.23;  author bin;  state Exp;
branches ;
next     1.2;

1.2
date     93.03.17.12.03.24;  author bin;  state Exp;
branches ;
next     1.1;

1.1
date     91.08.26.08.46.54;  author bin;  state Exp;
branches ;
next     ;


desc
@init ver from steve
@


1.3
log
@bob h: added .dc tm [tm] for steve.
@
text
@.\" /usr/lib/roff/nroff/specials.r 3/25/93
.\" Default special character definitions for nroff.
.dc em --
.dc hy -
.dc bu ->
.dc sq []
.dc ru _
.dc 14 1/4
.dc 12 1/2
.dc 34 3/4
.dc fi fi
.dc fl fl
.dc ff ff
.dc Fi ffi
.dc Fl ffl
.dc de degrees
.dc dg +
.dc fm '
.dc ct \o'c|'
.dc rg (r)
.dc co (c)
.dc tm [tm]
.dc pl +
.dc mi -
.dc eq =
.dc ** *
.dc sc section
.dc aa \'
.dc ga `
.dc ul _
.dc sl /
.dc *a alpha
.dc *b beta
.dc *g gamma
.dc *d delta
.dc *e epsilon
.dc *z zeta
.dc *y eta
.dc *h theta
.dc *i iota
.dc *k kappa
.dc *l lambda
.dc *m mu
.dc *n nu
.dc *c xi
.dc *o omicron
.dc *p pi
.dc *r rho
.dc *s sigma
.dc ts sigma
.dc *t tau
.dc *u upsilon
.dc *f phi
.dc *x chi
.dc *q psi
.dc *w omega
.dc *A Alpha
.dc *B Beta
.dc *G Gamma
.dc *D Delta
.dc *E Epsilon
.dc *Z Zeta
.dc *Y Eta
.dc *H Theta
.dc *I Iota
.dc *K Kappa
.dc *L Lambda
.dc *M Mu
.dc *N Nu
.dc *C Xi
.dc *O Omicron
.dc *P Pi
.dc *R Rho
.dc *S Sigma
.dc *T Tau
.dc *U Upsilon
.dc *F Phi
.dc *X Chi
.dc *Q Psi
.dc *W Omega
.dc sr "square root"
.dc rn ""
.dc >= \o'>_'
.dc <= \o'<_'
.dc == ==
.dc ~= \o'~_'
.dc ap ~
.dc != \o'=/'
.dc -> ->
.dc <- <-
.dc ua \o'|^'
.dc da \o'|v'
.dc mu x
.dc di /
.dc +- \o'+_'
.dc cu union
.dc ca intersection
.dc sb "subset of"
.dc sp "superset of"
.dc ib "improper subset of"
.dc ip "improper superset of"
.dc in infinity
.dc pd "partial derivitive"
.dc gr gradient
.dc no not
.dc is integral
.dc pt "proportional to"
.dc es \o'O/'
.dc mo "member of"
.dc br |
.dc dd "double dagger"
.dc rh ->
.dc lh <-
.dc or |
.dc ci O
.dc lt (
.dc lb (
.dc rt )
.dc rb )
.dc lk (
.dc rk )
.dc bv |
.dc lf [
.dc rf ]
.dc lc [
.dc rc ]
.\" end of /usr/lib/roff/nroff/specials.r
@


1.2
log
@bob h: change for stebe[@@ve: .dc aa ' to .dc aa \'
@
text
@d1 1
a1 1
.\" /usr/lib/roff/nroff/specials.r 4/16/91
d22 1
@


1.1
log
@Initial revision
@
text
@d27 1
a27 1
.dc aa '
@
