head	4.2;
access
	hal
	ljg
	fred
	udo
	nigel;
symbols
	r12:4.2;
locks; strict;
comment	@# @;


4.2
date	91.10.10.20.32.21;	author rcsadmin;	state Exp;
branches;
next	;


desc
@@


4.2
log
@This is the baseline version
@
text
@.\" /usr/lib/roff/troff_ps/specials.r 10/10/91
.\" Default special character definitions for PostScript troff.
.\" Uses Symbol font as \fS, Dingbat font as \f(DB.
.lf S Symbol.fwt
.dc em \XD0
.dc hy -
.dc bu \XB7
.dc sq []
.dc ru _
.dc 14 1/4
.dc 12 1/2
.dc 34 3/4
.dc fi \XAE
.dc fl \XAF
.dc ff ff
.dc Fi f\XAE
.dc Fl f\XAF
.dc de \XCA
.dc dg \XB2
.dc fm \XA9
.dc ct \XA2
.dc rg \fS\XD2\fP
.dc co \fS\XD3\fP
.dc tm \fS\XD4\fP
.dc pl \fS+\fP
.dc mi \fS-\fP
.dc eq \fS=\fP
.dc ** \fS*\fP
.dc sc \XA7
.dc aa \XC2
.dc ga \XC1
.dc ul _
.dc sl \XA4
.dc *a \fS\X61\fP
.dc *b \fS\X62\fP
.dc *g \fS\X67\fP
.dc *d \fS\X64\fP
.dc *e \fS\X65\fP
.dc *z \fS\X7A\fP
.dc *y \fS\X68\fP
.dc *h \fS\X71\fP
.dc *i \fS\X69\fP
.dc *k \fS\X6B\fP
.dc *l \fS\X6C\fP
.dc *m \fS\X6D\fP
.dc *n \fS\X6E\fP
.dc *c \fS\X78\fP
.dc *o \fS\X6F\fP
.dc *p \fS\X70\fP
.dc *r \fS\X72\fP
.dc *s \fS\X73\fP
.dc ts \fS\X56\fP
.dc *t \fS\X74\fP
.dc *u \fS\X75\fP
.dc *f \fS\X66\fP
.dc *x \fS\X63\fP
.dc *q \fS\X79\fP
.dc *w \fS\X77\fP
.dc *A \fS\X41\fP
.dc *B \fS\X42\fP
.dc *G \fS\X47\fP
.dc *D \fS\X44\fP
.dc *E \fS\X45\fP
.dc *Z \fS\X5A\fP
.dc *Y \fS\X48\fP
.dc *H \fS\X51\fP
.dc *I \fS\X49\fP
.dc *K \fS\X4B\fP
.dc *L \fS\X4C\fP
.dc *M \fS\X4D\fP
.dc *N \fS\X4E\fP
.dc *C \fS\X58\fP
.dc *O \fS\X4F\fP
.dc *P \fS\X50\fP
.dc *R \fS\X52\fP
.dc *S \fS\X53\fP
.dc *T \fS\X54\fP
.dc *U \fS\X55\fP
.dc *F \fS\X46\fP
.dc *X \fS\X43\fP
.dc *Q \fS\X59\fP
.dc *W \fS\X57\fP
.dc sr \fS\XD6\fP
.dc rn \fS\X60\fP
.dc >= \fS\XB3\fP
.dc <= \fS\XA3\fP
.dc == \fS\XBA\fP
.dc ~= \fS\XBB\fP
.dc ap ~
.dc != \fS\XB9\fP
.dc -> \fS\XAE\fP
.dc <- \fS\XAC\fP
.dc ua \fS\XAD\fP
.dc da \fS\XAF\fP
.dc mu \fS\XB4\fP
.dc di \fS\XA4\fP
.dc +- \fS\XB1\fP
.dc cu \fS\XC8\fP
.dc ca \fS\XC7\fP
.dc sb \fS\XCC\fP
.dc sp \fS\XC9\fP
.dc ib \fS\XCD\fP
.dc ip \fS\XCA\fP
.dc in \fS\XA5\fP
.dc pd \fS\XB6\fP
.dc gr \fS\XD1\fP
.dc no \fS\XD8\fP
.dc is \fS\XF2\fP
.dc pt \fS\XB5\fP
.dc es \fS\XC6\fP
.dc mo \fS\XCE\fP
.dc br \fS\XBD\fP
.dc dd \XB3
.dc rh \f(DB\X2B\fP
.dc lh <-
.dc or |
.dc ci O
.dc lt \fS\XE6\fP
.dc lb \fS\XE8\fP
.dc rt \fS\XF6\fP
.dc rb \fS\XF8\fP
.dc lk \fS\XED\fP
.dc rk \fS\XFD\fP
.dc bv \fS\XBD\fP
.dc lf \fS\XEB\fP
.dc rf \fS\XFB\fP
.dc lc \fS\XE9\fP
.dc rc \fS\XF9\fP
.\" end of /usr/lib/roff/troff_ps/specials.r
@
